63

C    2.599386    1.964150    1.427172
C    1.833641    2.966523    0.698905
C    1.833641    2.966523   -0.698905
C    2.599386    1.964150   -1.427172
C    3.334258    1.002190   -0.728267
C    3.334258    1.002190    0.728267
C    0.594639    3.203152    1.427172
C    0.594639    3.203152   -1.427172
C    1.833641    1.581277   -2.605532
C    3.334258   -0.383056   -1.178361
C    3.334258   -0.383056    1.178361
C    1.833641    1.581277    2.605532
C    2.599386   -0.750492   -2.309212
C    1.833641    0.251882   -3.037479
C    1.833641   -1.989493   -2.309212
C    0.594639   -0.367619   -3.487573
C   -0.594409    3.430240    0.728267
C    0.594639    2.347023   -2.605532
C    0.594639   -1.752865   -3.037479
C   -0.594409    1.752499   -3.037479
C   -0.594409    3.430240   -0.728267
C    3.334258   -1.239185   -0.000000
C    2.599386   -0.750492    2.309212
C   -1.833410    2.810739    1.178361
C    1.833641    0.251882    3.037479
C    0.594639    2.347023    2.605532
C    1.833641   -1.989493    2.309212
C    0.594639   -0.367619    3.487573
C   -0.594409    1.752499    3.037479
C   -0.594409    0.367253   -3.487573
C    2.599386   -2.428232   -0.000000
C   -1.833410    2.810739   -1.178361
C    0.594639   -1.752865    3.037479
C   -0.594409    0.367253    3.487573
C   -1.833410    1.989127    2.309212
C   -2.599156    0.750125    2.309212
C   -2.599156    2.427866    0.000000
C   -1.833410    1.989127   -2.309212
C   -2.599156    0.750125   -2.309212
C   -1.833410   -0.252248    3.037479
C   -1.833410   -1.581644    2.605532
C   -2.599156   -1.964516    1.427172
C   -0.594409   -2.347389    2.605532
C    1.833641   -2.811105   -1.178361
C   -3.334027    0.382689   -1.178361
C    1.833641   -2.811105    1.178361
C    0.594639   -3.430606    0.728267
C   -3.334027    1.238819    0.000000
C   -1.833410   -0.252248   -3.037479
C   -1.833410   -1.581644   -2.605532
C   -3.334027    0.382689    1.178361
C   -3.334027   -1.002557    0.728267
C   -0.594409   -3.203518    1.427172
C   -1.833410   -2.966890    0.698905
C   -3.334027   -1.002557   -0.728267
C    0.594639   -3.430606   -0.728267
C   -0.594409   -2.347389   -2.605532
C   -2.599156   -1.964516   -1.427172
C   -0.594409   -3.203518   -1.427172
C   -1.833410   -2.966890   -0.698905
He   -0.140423   -0.534262   -0.978857
He    0.260120    1.101496    0.000000
He   -0.140423   -0.534262    0.978857
