20
C20 Isomer 1 Symmetry Ih
C        -2.09217272881708   -0.00989141361127   -0.01088296692388
C        -1.51968756888481    0.32298027280400   -1.27609006634272
C        -0.67349896971742    1.47403083678651   -1.11063879276308
C        -1.54886875960125    0.99727748755287    0.99377511550027
C        -0.68398030863653    1.87355199068246    0.27139002793580
C        -0.68487202187562    0.27670301944139    1.87247561277597
C        -1.52052074650275   -1.27390205156696    0.32455331210705
C        -0.67424533100492   -1.10570786530568    1.47583361766287
C        -0.69372071583143   -0.78565627905359   -1.78120620812978
C        -0.69354551056627   -1.78126445402729   -0.78287624860860
C         0.67315644251503    1.11070843887147   -1.47318487693637
C         0.68359413468463   -0.27211636986266   -1.86986362654485
C         0.69256195023146    1.78601574931548    0.78519720919288
C         0.69230274752297    0.79052292515175    1.78363024995279
C         1.51941635978680    1.27886720149514   -0.32243120788456
C         0.67217098635965   -1.46944755636920    1.11279628324867
C         0.68288278626093   -1.86895403870452   -0.26875981394526
C         1.54764412171267   -0.99228577515781   -0.99152873015094
C         1.51842016937100   -0.31792511657059    1.27834408623374
C         2.09096296299293    0.01449299812850    0.01346702362000
